CM NEC-WIN Example
CM 5x5 half-wave dipole array over ground.
CM Optimized for resonance at 300 MHz
CE 
GW 1,11, -0.2418,0,0.25, 0.2418,0,0.25, .0001 
GM 1 4 0 0 0 0 0.7 0 0 
GM 5 4 0 0 0 0.7 0 0 0 
GS 0 0 1
GE 1 
GN 1 
EX 0 1 6 00  1.00000  0.00000 
EX 0 2 6 00 1.00000 0.00000 
EX 0 3 6 00  1.00000  0.00000 
EX 0 4 6 00 1.00000 0.00000 
EX 0 5 6 00  1.00000  0.00000 
EX 0 6 6 00 1.00000 0.00000 
EX 0 7 6 00  1.00000  0.00000 
EX 0 8 6 00 1.00000 0.00000 
EX 0 9 6 00  1.00000  0.00000 
EX 0 10 6 00 1.00000 0.00000 
EX 0 11 6 00  1.00000  0.00000 
EX 0 12 6 00 1.00000 0.00000 
EX 0 13 6 00  1.00000  0.00000 
EX 0 14 6 00 1.00000 0.00000 
EX 0 15 6 00  1.00000  0.00000 
EX 0 16 6 00 1.00000 0.00000
EX 0 17 6 00  1.00000  0.00000 
EX 0 18 6 00 1.00000 0.00000 
EX 0 19 6 00  1.00000  0.00000 
EX 0 20 6 00 1.00000 0.00000 
EX 0 21 6 00  1.00000  0.00000 
EX 0 22 6 00 1.00000 0.00000
EX 0 23 6 00  1.00000  0.00000 
EX 0 24 6 00 1.00000 0.00000
EX 0 25 6 00 1.00000 0.00000
FR 0 0 0 0 300 0 
RP 0 91 1 1000 -90 0 2 1 
RP 0 91 1 1000 -90 45 2 1 
RP 0 91 1 1000 -90 90 2 1 
XQ
EN

