CM NEC-WIN Example
CM Simple dipole antenna in Free Space
CM Optimized for resonance at 300 MHz
CE 
GW 1,9, -0.2416,0,0, 0.2418,0,0, .0001 
GE 0 
GN -1 
EX 0 1 5 00 1.00000 0.00000 
FR 0 0 0 0 300 0 
RP 0 36	36 1000 -180 0 10 10
XQ
EN
